/*--------------------------------*- C++ -*----------------------------------*\
| =========                 |                                                 |
| \\      /  F ield         | OpenFOAM: The Open Source CFD Toolbox           |
|  \\    /   O peration     | Version:  4.x                                   |
|   \\  /    A nd           | Web:      www.OpenFOAM.org                      |
|    \\/     M anipulation  |                                                 |
\*---------------------------------------------------------------------------*/
FoamFile
{
    version     2.0;
    format      ascii;
    class       dictionary;
    object      sampleDict;
}
// * * * * * * * * * * * * * * * * * * * * * * * * * * * * * * * * * * * * //

		type            	surfaces;
		libs            	("libsampling.so");
    
		// executeControl  	writeTime;     // none; timeStep; writeTime; outputTime       
		// executeInterval   	1;
		// writeControl    	writeTime;     // none; timeStep; writeTime; outputTime
		// writeInterval     	1;   

		surfaceFormat   		vtk;
		fields          		(p pMean U UMean RMean UPrime2Mean dissipationTKEMean pressureDiffusionTKEMean prodTKEMean turbulenceTransportTKEMean viscousDiffusionTKEMean convectionTKEMean);
    
   
		interpolationScheme cellPoint;

		surfaces
		(
			#include "userLocationSurfacesGerman"
		);
// *********************************************************************** //
